/*--------------------------------*- C++ -*----------------------------------*\
  =========                 |
  \\      /  F ield         | OpenFOAM: The Open Source CFD Toolbox
   \\    /   O peration     | Website:  https://openfoam.org
    \\  /    A nd           | Version:  dev
     \\/     M anipulation  |
\*---------------------------------------------------------------------------*/
FoamFile
{
    version     2.0;
    format      ascii;
    class       dictionary;
    location    "constant";
    object      phaseProperties;
}
// * * * * * * * * * * * * * * * * * * * * * * * * * * * * * * * * * * * * * //

phases (particles gas);

continuousPhase gas;

pMin 10000;

particles
{
    type          purePhaseModel;
    diameterModel constant;
    constantCoeffs
    {
        d               1e-3;
    }

    alphaMax        0.67;
    residualAlpha   1e-8;
}

gas
{
    type          multiComponentPhaseModel; //purePhaseModel;
    diameterModel none;

    residualAlpha   1e-8;
}

blending
{
    default
    {
        type            continuous;
        phase gas;
    }
}

surfaceTension
{
    particles_gas
    {
        type            constant;
        sigma           0;
    }
}

kineticProperties
{
    radialModel         SinclairJackson;
    alphaMinFriction    0.5;
    alphasThreshold     1e-3;
}

phaseTransfer
{}

lift
{}

wallLubrication
{}

turbulentDispersion
{}

interfaceCompression
{}

// ************************************************************************* //
