/*--------------------------------*- C++ -*----------------------------------*\
  =========                 |
  \\      /  F ield         | OpenFOAM: The Open Source CFD Toolbox
   \\    /   O peration     | Website:  https://openfoam.org
    \\  /    A nd           | Version:  any
     \\/     M anipulation  |
\*---------------------------------------------------------------------------*/
FoamFile
{
    format ascii;
    class dictionary;
    object blockMeshDict;
}
// * * * * * * * * * * * * * * * * * * * * * * * * * * * * * * * * * * * * * //

// Include shared geometry parameters
#include "../constant/geometryParameters"

#codeStream {

codeInclude
#{
#include "scalarList.H"
#};

    code #
{

    const Foam::scalarList& atmCells_aspect_ratio_bottom =
        dict.lookup("atmCells_aspect_ratio_bottom");
    const Foam::scalarList& atmCells_aspect_ratio_top =
        dict.lookup("atmCells_aspect_ratio_top");

    bool square_flag = dict.lookupOrDefault<bool>("square_flag", false);
    
    List<scalar> layer_fraction($n_vert_layers + 1, 0.0);

    layer_fraction[$n_vert_layers] = 1.0;            
    scalar delta_z($dz_ratio);

    scalar c_bottom = atmCells_aspect_ratio_bottom[0];
    scalar c_top = atmCells_aspect_ratio_top[0]; 
    scalar dz_bottom = $crater_cell_size * c_bottom;
    scalar dz_top = $hor_cell_size_topo * c_top;

    scalar zlayer_rel = 0.0;

    for (label layer = 0; layer <= $n_vert_layers-2; ++layer)
    {
        label N = round( Foam::log(dz_top/dz_bottom) / Foam::log(delta_z));
        Info << "N " << N << endl;
        Info << "dz_bottom " << dz_bottom << endl; 
        Info << "dz_top " << dz_top << endl; 
        scalar z_layer = dz_bottom * ( 1.0 - pow(delta_z,N+1) ) / ( 1.0 - delta_z);
        Info << "z_layer " << z_layer << endl;

        zlayer_rel += (z_layer/$atm_top_z);
        Info << "z_layer_rel " << zlayer_rel << endl;

        layer_fraction[layer+1] = zlayer_rel;

        c_top = atmCells_aspect_ratio_top[layer];
        c_bottom = atmCells_aspect_ratio_bottom[layer];
        dz_bottom = $hor_cell_size_topo * pow(2.0,layer+1) * c_bottom;
        dz_top = $hor_cell_size_topo * pow(2.0,layer+1) * c_top;
        
    }

    Info << "layer_fraction " << layer_fraction << endl;

    // --- Helper Function for Geometric Grading Calculation (using auto/lambda)
    // ---
    auto calculateGradingCells =
        [&]( // Usa [&] per catturare per riferimento, o [] se non serve accesso
             // a variabili esterne
            scalar totalLength,
            scalar cellSizeStart,
            scalar cellSizeEnd,
            label& nCells,
            scalar& grading,
            label maxIter = 50, // Puoi ancora usare valori di default
            scalar tolerance =
                1e-4) -> void // Specifica il tipo di ritorno (opzionale ma
                              // buona pratica per chiarezza)
    {
        // --- Inizio del corpo della funzione (lambda) ---
        nCells = 0;
        grading = 1.0;

        if (totalLength < 1e-9)
        {
            return;
        }
        if (cellSizeStart < 1e-9 || cellSizeEnd < 1e-9)
        {
            Info << "Warning in calculateGradingCells: cellSizeStart or "
                    "cellSizeEnd is near zero. "
                 << "Falling back to single cell." << endl;
            nCells = 1;
            grading = 1.0;
            return;
        }
        if (Foam::mag(cellSizeEnd - cellSizeStart) < 1e-9 * cellSizeStart)
        {
            nCells = Foam::max(1, label(round(totalLength / cellSizeStart)));
            grading = 1.0;
            return;
        }

        scalar r = cellSizeEnd / cellSizeStart;
        scalar K = totalLength / cellSizeStart;

        if (r <= 1.0 + 1e-6 || K <= 1.0 + 1e-6)
        {
            nCells = Foam::max(1, label(round(totalLength / cellSizeStart)));
            grading = 1.0;
            return;
        }

        scalar n0 = Foam::max(1.0 + tolerance, K / r);
        scalar n2 = K;

        if (n2 < n0 || ceil(n0) >= floor(n2))
        {
            nCells = Foam::max(1, label(round(totalLength / cellSizeStart)));
            grading = 1.0;
            return;
        }

        // Definisci la funzione f(n) interna alla lambda principale
        auto calculateF = [&](scalar n_val) -> scalar {
            if (n_val <= 1.0 + 1e-6)
                return -K;
            scalar rn = pow(r, n_val / (n_val - 1.0));
            scalar r1 = pow(r, 1.0 / (n_val - 1.0));
            if (Foam::mag(r1 - 1.0) < 1e-9)
                return -K;
            return (rn - 1.0) / (r1 - 1.0) - K;
        }; // Fine della lambda interna calculateF

        scalar f0 = calculateF(n0);
        scalar n1 = 0.5 * (n0 + n2);
        scalar f1 = calculateF(n1);

        label iter = 0;
        while (Foam::mag(n2 - n0) > tolerance && iter < maxIter)
        {
            iter++;
            if (f0 * f1 < 0)
            {
                n2 = n1;
            }
            else
            {
                n0 = n1;
                f0 = f1;
            }
            n1 = 0.5 * (n0 + n2);
            f1 = calculateF(n1);
        }

        nCells = Foam::max(1, label(round(n1)));
        grading = (nCells <= 1) ? 1.0 : r;
    };

// --------------------------------------------------------------------
        // Structure to return solver results
        // --------------------------------------------------------------------
        struct RingParams {
            scalar R_icyl;   // Calculated outer radius for the ring
            scalar grading;  // simpleGrading value (last_cell / first_cell)
        };

        // --------------------------------------------------------------------
        // SOLVER: Calculates R_icyl and Grading to match cell sizes at the interface
        // --------------------------------------------------------------------
        auto solveRingParameters = [&](scalar R_inner, scalar d_start, label N_ring, scalar L_far_field, label N_outer) -> RingParams 
        {
            // Limits for the geometric expansion ratio 'r'
            // r < 1: compression, r > 1: expansion
            scalar r_min = 0.5;
            scalar r_max = 2.0;
            
            // Bisection variables
            scalar r_low = r_min;
            scalar r_high = r_max;
            scalar r_sol = 1.0;
            
            // Tolerance based on the starting cell size
            scalar tolerance = 1e-5 * d_start;
            int max_iter = 100;

            for (int iter = 0; iter < max_iter; ++iter) {
                scalar r = 0.5 * (r_low + r_high);
                
                // 1. Calculate ring width (Geometric series sum)
                scalar ring_width;
                scalar d_end_ring;

                // Handle case r ~ 1.0 to avoid division by zero
                if (Foam::mag(r - 1.0) < 1e-6) {
                    ring_width = d_start * N_ring;
                    d_end_ring = d_start;
                } else {
                    ring_width = d_start * (pow(r, N_ring) - 1.0) / (r - 1.0);
                    d_end_ring = d_start * pow(r, N_ring - 1);
                }

                scalar R_curr = R_inner + ring_width;
                
                // 2. Calculate average cell size in the outer block
                scalar space_remaining = L_far_field - R_curr;

                // Safety check: if the ring becomes too large and touches the boundary,
                // drastically reduce the upper limit of r
                if (space_remaining < 1e-3 * L_far_field) {
                    r_high = r;
                    continue;
                }

                scalar d_start_outer = space_remaining / N_outer;

                // 3. Check Error (Discontinuity at the interface)
                scalar error = d_end_ring - d_start_outer;

                // Convergence reached?
                if (Foam::mag(error) < tolerance) {
                    r_sol = r;
                    break;
                }

                // 4. Update Bisection
                // If d_end > d_outer (Error > 0), the grading is too aggressive.
                // Since Error increases monotonically with r, we must reduce r.
                if (error > 0) {
                    r_high = r;
                } else {
                    r_low = r;
                }
                r_sol = r;
            }

            // Calculate final results using the found solution
            scalar final_width;
            if (Foam::mag(r_sol - 1.0) < 1e-6) {
                final_width = d_start * N_ring;
            } else {
                final_width = d_start * (pow(r_sol, N_ring) - 1.0) / (r_sol - 1.0);
            }

            // In OpenFOAM, simpleGrading is defined as (LastCell / FirstCell)
            // This is equivalent to r^(N-1)
            scalar final_grading = pow(r_sol, N_ring - 1);

            return RingParams{R_inner + final_width, final_grading};
        };


    int n_mult = pow(2, $n_vert_layers - 1);

    scalar hor_cell_size_top_atm($hor_cell_size_topo * n_mult);

    // --- Basic Calculations ---
    scalar radAngle = degToRad($degAngle); // 45 deg
    scalar conduit_base_z = -1.0 * ($h_conduit + $h_crater);
    scalar crater_base_z = -1.0 * $h_crater;

    // Radii
    scalar r_cond_base = $r_conduit_base;
    scalar r_cr_base = $r_crater_base;
    scalar r_cr_top =
        $r_crater_top; // Also radius for Octagon and Inner Circle at z=0+
    scalar r_icyl =
        hor_cell_size_top_atm / cos(radAngle); // Intermediate Cylinder radius

    // Corner coordinates cache (based on 45 deg for NE/SE/SW/NW)
    auto getCorners = [&](scalar radius) {
        struct Coords
        {
            scalar x, y;
        };
        return Coords {radius * cos(radAngle), radius * sin(radAngle)};
    };
    auto corners_icyl = getCorners(r_icyl);

    int nx_pos_out =
        round((mag($atm_x_pos) - corners_icyl.x) / hor_cell_size_top_atm);
    nx_pos_out = Foam::max(1, nx_pos_out);
    int nx_neg_out =
        round((mag($atm_x_neg) - corners_icyl.x) / hor_cell_size_top_atm);
    nx_neg_out = Foam::max(1, nx_neg_out);
    int ny_pos_out =
        round((mag($atm_y_pos) - corners_icyl.y) / hor_cell_size_top_atm);
    ny_pos_out = Foam::max(1, ny_pos_out);
    int ny_neg_out =
        round((mag($atm_y_neg) - corners_icyl.y) / hor_cell_size_top_atm);
    ny_neg_out = Foam::max(1, ny_neg_out);
    int nx_pos_out_mult = nx_pos_out * n_mult;
    int nx_neg_out_mult = nx_neg_out * n_mult;
    int ny_pos_out_mult = ny_pos_out * n_mult;
    int ny_neg_out_mult = ny_neg_out * n_mult;

    Info << "--- Automatically calculating n_crater (based on "
            "crater_cell_size) ---"
         << endl;

    scalar arg = (0.5 * $r_crater_top) / ($crater_cell_size);
    scalar R_calc = Foam::log(arg) / Foam::log(2.0);

    scalar n_crater = label(round((0.5 * $r_crater_top) / ($crater_cell_size)));

    scalar actual_crater_top_size = 0.5 * $r_crater_top / n_crater;

    Info << "  - Target horizontal crater cell size at z=0: "
         << $crater_cell_size << endl;
    Info << "  - Actual horizontal crater cell size at z=0: "
         << actual_crater_top_size << endl;

    Info << "  - Calculated R (float): " << R_calc << endl;

    Info << "--- Automatically calculating the interface ring  parameters ---"
         << endl;

    scalar l0_cyl = $hor_cell_size_topo * n_crater;

    Info << "   l0_cyl " << l0_cyl << endl;

    scalar l_cyl = l0_cyl / sin(degToRad(67.5));

    Info << "   l_cyl " << l_cyl << endl;

    scalar cyl_rad_base = l_cyl / (2.0 * cos(degToRad(67.5)));

    Info << "   cyl_rad_base " << cyl_rad_base << endl;

    scalar ring_width_const = cyl_rad_base - $r_crater_top;
    Info << "Constant width of the interface ring: " << ring_width_const
         << endl;

    label n_rad_gr_interface;
    scalar rad_gr_val;

    scalar drRatio = $hor_cell_size_topo / actual_crater_top_size;

    label n0 = 1;
    scalar alfa0 = pow(drRatio, 1.0 / (n0 + 1.0));
    scalar drTot0 = sqrt(actual_crater_top_size * $hor_cell_size_topo);

    // label n2 = ceil(ring_width_const / $hor_cell_size_topo);
    label n2 = ceil(ring_width_const / actual_crater_top_size);
    scalar alfa2 = pow(drRatio, 1.0 / (n2 + 1.0));
    scalar drTot2 =
        actual_crater_top_size * (alfa2 - pow(alfa2, n2+1)) / (1.0 - alfa2);

    Info << "n0 " << n0 << " n2 " << n2 << endl;
    Info << "alfa0 " << alfa0 << " alfa2 " << alfa2 << endl;
    Info << "drTot0 " << drTot0 << " drTot2 " << drTot2 << endl;

    scalar f0 = ring_width_const - drTot0;
    scalar f2 = ring_width_const - drTot2;
    
    Info << "f0 " << f0 << " f2 " << f2 << endl;

    label n1 = label(round(0.5 * (n0 + n2)));
    scalar alfa1 = pow(drRatio, 1.0 / (n1 + 1.0));
    scalar drTot1 =
        actual_crater_top_size * (alfa1 - pow(alfa1, n1+1)) / (1.0 - alfa1);
    scalar f1 = ring_width_const - drTot1;
    
    Info << "n1 " << n1 << " f1 " << f1 << endl;

    label iter = 0;

    while (iter < 10)
    {
        iter++;
        Info << "n0 " << n0 << " n1 " << n1 << " n2 " << n2 << endl;
        Info << "alfa0 " << alfa0 << " alfa1 " << alfa1 << " alfa2 " << alfa2 << endl;
        Info << "f0 " << f0 << " f1 " << f1 << " f2 " << f2 << endl;
        if ((n0 == n1) || (n1 == n2) || ( (n2-n0) == 1 ) )
        {
            if ((Foam::mag(f0)*alfa0) < (Foam::mag(f2)*alfa2))
            {
                Info << "Exit taking n0 " << n0 << " and drTot0 " << drTot0 << endl;
                drTot1 = drTot0;
                n1 = n0;
                alfa1 = alfa0;
                break;
            }
            else
            {
                Info << "Exit taking n2 " << n2 << " and drTot2 " << drTot2 << endl;
                drTot1 = drTot2;
                n1 = n2;
                alfa1 = alfa2;
                break;
            }
        }
        
        if (f0 * f1 < 0)
        {
            n2 = n1;
            f2 = f1;
            drTot2 = drTot1;
            alfa2 = alfa1;
        }
        else
        {
            n0 = n1;
            f0 = f1;
            drTot0 = drTot1;
            alfa0 = alfa1;
        }
        n1 = label(round(0.5 * (n0 + n2)));
        alfa1 = pow(drRatio, 1.0 / (n1 + 1.0));
        drTot1 = actual_crater_top_size * (alfa1 - pow(alfa1, n1+1))
            / (1.0 - alfa1);
        f1 = ring_width_const - drTot1;
        Info << "n1 " << n1 << " drTot1 " << drTot1 << " alfa1 " << alfa1 << " f1 " << f1 << endl  << endl;
    }

    Info << "Number of radial cell in ring " << n1 << endl;

    ring_width_const = drTot1;

    Info << "Corrected width of the interface ring: " << ring_width_const
         << endl;                  
                  
    rad_gr_val = pow(alfa1,n1-1);
    Info << "Radial ratio between consecutive cells in ring " << alfa1 << endl; 
    Info << "Ring grading " << rad_gr_val << endl; 
    n_rad_gr_interface = n1;

    /*
    calculateGradingCells(
        ring_width_const, actual_crater_top_size, $hor_cell_size_topo,
    n_rad_gr_interface, rad_gr_val); Info << "Calculated n_rad_gr_interface = "
    << n_rad_gr_interface
         << ", rad_gr_val = " << rad_gr_val << endl;
    */

    // ... (nz calculations remain the same) ...

    // Compute the grading and vertical number of cells in crater

    scalar dz_top_crater =
        atmCells_aspect_ratio_bottom[0] * r_cr_top / (2.0 * n_crater);
    scalar dz_bottom_crater =
        atmCells_aspect_ratio_bottom[0] * r_cr_base / (2.0 * n_crater);
    int nz_crater = 1;
    scalar z_crater_grading = 1.0;

    calculateGradingCells($h_crater,
                          dz_bottom_crater,
                          dz_top_crater,
                          nz_crater,
                          z_crater_grading);
    Info << "Calculated nz_crater = " << nz_crater
         << ", z_crater_grading = " << z_crater_grading << endl;


    int nz_conduit = 0;
    if ($h_conduit > 0)
    {
        nz_conduit =
            round( $h_conduit / dz_bottom_crater );
        nz_conduit = Foam::max(1, nz_conduit);
    }

    // Compute the grading and vertical number of cells in first layer
    scalar dz_atm_min = dz_top_crater;
    os << "dz_atm_min " << dz_atm_min << ";" << endl;
    Info << "dz_atm_min " << dz_atm_min << ";" << endl;

    scalar dz_atm_max = hor_cell_size_top_atm * atmCells_aspect_ratio_top[0]
        / pow(2, $n_vert_layers - 1);
    os << "dz_atm_max " << dz_atm_max << ";" << endl;
    Info << "dz_atm_max " << dz_atm_max << ";" << endl;

    scalar dz_bottom_layer($atm_top_z * layer_fraction[1]);
    Info << "dz_bottom_layer " << dz_bottom_layer << endl;

    label nz_out;
    scalar z_out_grading;
    calculateGradingCells(
        dz_bottom_layer, dz_atm_min, dz_atm_max, nz_out, z_out_grading);
    Info << "Calculated nz_out = " << nz_out
         << ", z_out_grading = " << z_out_grading << endl;

    os << "nz_out " << nz_out << ";" << endl;
    os << "z_out_grading " << z_out_grading << ";" << endl;

    // --- REVISED Vertex Generation (N=0, CCW) ---
    Info << "Revised Vertex Generation (N=0, CCW)" << endl;
    os << "vertices" << endl;
    os << "(" << endl;
    label vertexCount = 0;
    List<vector> points; // Store points

    // Helper function
    auto addVertex = [&](const vector& pt, const string& comment) {
        os << "(" << pt.x() << " " << pt.y() << " " << pt.z() << ") // "
           << vertexCount << " " << comment << endl;
        // Info << "(" << pt.x() << " " << pt.y() << " " << pt.z() << ") // " <<
        // vertexCount << " " << comment << endl;
        points.append(pt);
        vertexCount++;
        return vertexCount - 1; // Return the index
    };

    // Function to generate 8 points on a circle/octagon (N=0, CCW)
    auto makeRing = [&](label& startIdx,
                        scalar r,
                        scalar rCorner,
                        scalar z,
                        scalar dx,
                        scalar dy,
                        const string& prefix,
                        const string& type) {
        startIdx = vertexCount;
        addVertex(vector(dx + 0, dy + r, z),
                  prefix + " " + type + " N"); // Idx 0
        addVertex(vector(dx - rCorner, dy + rCorner, z),
                  prefix + " " + type + " NW"); // Idx 1
        addVertex(vector(dx - r, dy + 0, z),
                  prefix + " " + type + " W"); // Idx 2
        addVertex(vector(dx - rCorner, dy - rCorner, z),
                  prefix + " " + type + " SW"); // Idx 3
        addVertex(vector(dx + 0, dy - r, z),
                  prefix + " " + type + " S"); // Idx 4
        addVertex(vector(dx + rCorner, dy - rCorner, z),
                  prefix + " " + type + " SE"); // Idx 5
        addVertex(vector(dx + r, dy + 0, z),
                  prefix + " " + type + " E"); // Idx 6
        addVertex(vector(dx + rCorner, dy + rCorner, z),
                  prefix + " " + type + " NE"); // Idx 7
    };

    // --- Storage for Start Indices ---
    // Base Levels
    label L_condBase_center = -1;
    label L_condBase_oct_Start = -1, L_condBase_outer_Start = -1;

    label L_crBase_center = -1, L_crBase_oct_Start = -1,
          L_crBase_outer_Start = -1;

    // Atmospheric Layers (Index 0=unused, 1=z=0 base, 2=topL1/baseL2, ...)
    List<label> L_center_Start($n_vert_layers + 2, -1);
    List<label> L_oct_Start($n_vert_layers + 2, -1); // Octagon (r=rc_top)
    List<label> L_inr_Start($n_vert_layers + 2, -1); // Inner Circle (r=rc_top)
    List<label> L_inrDup_Start(
        $n_vert_layers + 2,
        -1); // Inner Circle Duplicates (only for L1 top / L2 base)
    List<label> L_icyl_Start($n_vert_layers + 2,
                             -1); // Intermediate Cylinder (r=cyl_radius)

    List<label> L_far_Start($n_vert_layers + 2, -1); // Far field

    // Indices of bottom vertices for layers > 1 (vertical duplicates)
    List<label> L_bottom_center_Start($n_vert_layers + 2, -1);
    List<label> L_bottom_oct_Start($n_vert_layers + 2, -1);
    List<label> L_bottom_inr_Start($n_vert_layers + 2, -1);
    List<label> L_bottom_inrDup_Start($n_vert_layers + 2, -1);
    List<label> L_bottom_icyl_Start($n_vert_layers + 2, -1);
    List<label> L_bottom_far_Start($n_vert_layers + 2, -1);

    // --- Conduit Base Vertices (z = conduit_base_z) ---
    if ($h_conduit > 0)
    {
        scalar z = conduit_base_z;
        scalar dx = $dx_crater_base + $dx_conduit_base;
        scalar dy = $dy_crater_base + $dy_conduit_base;
        L_condBase_center = addVertex(vector(dx, dy, z), "CrBase Ctr");
        makeRing(L_condBase_oct_Start,
                 0.5 * r_cond_base,
                 $coeff * cos(radAngle) * 0.5 * r_cond_base,
                 z,
                 dx,
                 dy,
                 "CondBase",
                 "Oct");
        makeRing(L_condBase_outer_Start,
                 r_cond_base,
                 r_cond_base * cos(radAngle),
                 z,
                 dx,
                 dy,
                 "CondBase",
                 "Outer"); // Circle points
    }

    // --- Crater Base Vertices (z = crater_base_z) ---
    {
        scalar z = crater_base_z;
        scalar dx = $dx_crater_base;
        scalar dy = $dy_crater_base;
        L_crBase_center = addVertex(vector(dx, dy, z), "CrBase Ctr");
        Info << "vertexCount " << vertexCount << endl;
        makeRing(L_crBase_oct_Start,
                 0.5 * r_cr_base,
                 $coeff * cos(radAngle) * 0.5 * r_cr_base,
                 z,
                 dx,
                 dy,
                 "CrBase",
                 "Oct");
        Info << "vertexCount " << vertexCount << endl;
        makeRing(L_crBase_outer_Start,
                 r_cr_base,
                 r_cr_base * cos(radAngle),
                 z,
                 dx,
                 dy,
                 "CrBase",
                 "Outer"); // Circle points
        Info << "vertexCount " << vertexCount << endl;
        Info << "crater base indexes " << L_crBase_center << L_crBase_oct_Start
             << L_crBase_outer_Start << endl;
    }

    scalar icylExt_x;
    scalar icylExt_y;

    // List to store the calculated optimal grading for each layer.
    // Size is +1 because loop runs from 1 to n_vert_layers.
    List<scalar> storedGradings($n_vert_layers + 1, rad_gr_val);
    List<scalar> storedRadiusCyl($n_vert_layers + 1, $r_crater_top + ring_width_const);

    // --- Loop through atmospheric horizontal layers ---
    for (label layer = 1; layer <= $n_vert_layers; ++layer)
    {
        // Layer Index 'layer' runs 1 to N.
        // Vertex List Index 'layer+1' corresponds to the Bottom of layer
        // 'layer'. Vertex List Index 'layer' corresponds to the BOTTOM of layer
        // 'layer' (except for L1 base at z=0, handled above).

        scalar z_level;

        if (layer == 1)
        {
            z_level = $crater_top_z; // Base of Layer 1 is z=0
            r_icyl = $r_crater_top + ring_width_const;
            icylExt_x = $hor_cell_size_topo * n_crater;
            icylExt_y = icylExt_x;
        }
        else
        {
            // Bottom Z is the Top Z of the previous layer
            z_level = $atm_top_z * layer_fraction[layer - 1];
            //r_icyl = $r_crater_top * pow(2.0, layer - 1)
            //    + ring_width_const * 1.5 * pow(2.0, layer - 2);
            icylExt_x = $hor_cell_size_topo * pow(2.0, layer - 2) * n_crater;
            icylExt_y = icylExt_x;
        }

        Info << "bottom level " << z_level << endl;

        r_cr_top = $r_crater_top * pow($exp_fact, layer - 1);

        scalar dx = 0.0; // Assuming centered
        scalar dy = 0.0;
        label listIdxBottom =
            layer; // Index in lists for vertices at the Bottom of this layer

        Info << "Generating vertices for Bottom of Layer " << layer
             << " (z=" << z_level << ", List Index " << listIdxBottom << ")"
             << endl;

        // --- Generate Bottom vertices for Layer 'layer' ---
        L_bottom_center_Start[listIdxBottom] = addVertex(
            vector(dx, dy, z_level), "L" + Foam::name(layer) + " Btm Ctr");
        makeRing(L_bottom_oct_Start[listIdxBottom],
                 0.5 * r_cr_top,
                 $coeff * cos(radAngle) * 0.5 * r_cr_top,
                 z_level,
                 dx,
                 dy,
                 "L" + Foam::name(layer) + " Btm",
                 "Oct");
                 
                 
        makeRing(L_bottom_inr_Start[listIdxBottom],
                 r_cr_top,
                 r_cr_top * cos(radAngle),
                 z_level,
                 dx,
                 dy,
                 "L" + Foam::name(layer) + " Btm",
                 "Inr");
                 
        L_bottom_inrDup_Start[listIdxBottom] =
            vertexCount; // Duplicates for mergePatchPairs interface at base of
                         // L2
        for (label k = 0; k < 8; ++k)
            addVertex(points[L_bottom_inr_Start[listIdxBottom] + k],
                      "L" + Foam::name(layer) + " BtmInrDup");

        scalar curvCoeff = cos(radAngle);

        scalar r_axis = r_icyl;
        scalar r_diag = r_icyl * curvCoeff;
        
        if (layer == 1 && square_flag)
        {
            r_axis = r_icyl * curvCoeff;
        }
        
        makeRing(L_bottom_icyl_Start[listIdxBottom],
                 r_axis,
                 r_diag,
                 z_level,
                 dx,
                 dy,
                 "L" + Foam::name(layer) + " Btm",
                 "ICyl");

        // --- Far Field Vertices (Systematic N=0, CCW Indexing) ---
        L_bottom_far_Start[listIdxBottom] = vertexCount; // Or listIdx for z=0
        string prefix =
            (listIdxBottom == 1) ? "z0" : "L" + Foam::name(layer) + " Btm";

        addVertex(vector(0, $atm_y_pos, z_level),
                  prefix + " Far N0"); // New Idx 0
        addVertex(vector(-icylExt_x, $atm_y_pos, z_level),
                  prefix + " Far N-1"); // New Idx 1
        addVertex(vector($atm_x_neg, $atm_y_pos, z_level),
                  prefix + " Far NWc"); // New Idx 2
        addVertex(vector($atm_x_neg, icylExt_y, z_level),
                  prefix + " Far W1"); // New Idx 3
        addVertex(vector($atm_x_neg, 0, z_level),
                  prefix + " Far W0"); // New Idx 4
        addVertex(vector($atm_x_neg, -icylExt_y, z_level),
                  prefix + " Far W-1"); // New Idx 5
        addVertex(vector($atm_x_neg, $atm_y_neg, z_level),
                  prefix + " Far SWc"); // New Idx 6
        addVertex(vector(-icylExt_x, $atm_y_neg, z_level),
                  prefix + " Far S-1"); // New Idx 7
        addVertex(vector(0, $atm_y_neg, z_level),
                  prefix + " Far S0"); // New Idx 8
        addVertex(vector(icylExt_x, $atm_y_neg, z_level),
                  prefix + " Far S1"); // New Idx 9
        addVertex(vector($atm_x_pos, $atm_y_neg, z_level),
                  prefix + " Far SEc"); // New Idx 10
        addVertex(vector($atm_x_pos, -icylExt_y, z_level),
                  prefix + " Far E-1"); // New Idx 11
        addVertex(vector($atm_x_pos, 0, z_level),
                  prefix + " Far E0"); // New Idx 12
        addVertex(vector($atm_x_pos, icylExt_y, z_level),
                  prefix + " Far E1"); // New Idx 13
        addVertex(vector($atm_x_pos, $atm_y_pos, z_level),
                  prefix + " Far NEc"); // New Idx 14
        addVertex(vector(icylExt_x, $atm_y_pos, z_level),
                  prefix + " Far N1"); // New Idx 15

        z_level = $atm_top_z * layer_fraction[layer];

        r_cr_top = $r_crater_top * pow($exp_fact, layer);

        Info << "top level " << z_level << endl;

        label listIdxTop =
            layer; // Index in lists for vertices at the TOP of this layer

        Info << "Generating vertices for top of Layer " << layer
             << " (z=" << z_level << ", List Index " << listIdxTop << ")"
             << endl;

        // --- Generate TOP vertices for Layer 'layer' ---
        L_center_Start[listIdxTop] = addVertex(
            vector(dx, dy, z_level), "L" + Foam::name(layer) + " Top Ctr");
        makeRing(L_oct_Start[listIdxTop],
                 0.5 * r_cr_top,
                 $coeff * cos(radAngle) * 0.5 * r_cr_top,
                 z_level,
                 dx,
                 dy,
                 "L" + Foam::name(layer) + " Top",
                 "Oct");
                 
                 
        makeRing(L_inr_Start[listIdxTop],
                 r_cr_top,
                 r_cr_top * cos(radAngle),
                 z_level,
                 dx,
                 dy,
                 "L" + Foam::name(layer) + " Top",
                 "Inr");
                                                  
        L_inrDup_Start[listIdxTop] =
            vertexCount; // Duplicates for mergePatchPairs interface at base of
                         // L2
        for (label k = 0; k < 8; ++k)
            addVertex(points[L_inr_Start[listIdxTop] + k],
                      "L" + Foam::name(layer) + " TopInrDup");


        // 1. Calculate scaling parameters for this layer
        // ------------------------------------------------------------------
        // Note: r_cr_top is already defined in your code (crater radius at this layer)

        scalar scale_factor = pow(2.0, layer); 
        scalar d_start_curr = actual_crater_top_size * scale_factor; // Target cell size at the crater rim

        // ------------------------------------------------------------------
        // 2. Calculate outer cell counts (N_outer) scaled for this layer
        //    (nx_pos_out_mult etc. are the cell counts at the base layer)
        //    The count halves as the layer index increases (cells get larger)
        // ------------------------------------------------------------------
        int div_factor = pow(2, layer-1); 
        