/*--------------------------------*- C++ -*----------------------------------*\
  =========                 |
  \\      /  F ield         | OpenFOAM: The Open Source CFD Toolbox
   \\    /   O peration     | Website:  https://openfoam.org
    \\  /    A nd           | Version:  13
     \\/     M anipulation  |
\*---------------------------------------------------------------------------*/
FoamFile
{
    format      ascii;
    class       dictionary;
    object      createZonesDict;
}
// * * * * * * * * * * * * * * * * * * * * * * * * * * * * * * * * * * * * * //

// Include shared geometry parameters
#include "../constant/geometryParameters"

crater
{
    type        cylinder;
    zoneType    cell;
    name        crater;
    point1  (0 0 #calc "-$h_crater");
    point2  (0 0 0);
    radius  $r_crater_top;
}

