/*--------------------------------*- C++ -*----------------------------------*\
  =========                 |
  \\      /  F ield         | OpenFOAM: The Open Source CFD Toolbox
   \\    /   O peration     | Website:  https://openfoam.org
    \\  /    A nd           | Version:  13
     \\/     M anipulation  |
\*---------------------------------------------------------------------------*/
FoamFile
{
    format          ascii;
    class           dictionary;
    location        "system";
    object          functions;
}
// * * * * * * * * * * * * * * * * * * * * * * * * * * * * * * * * * * * * * //

writeObjects1
{
    type        writeObjects;
    libs        ("libutilityFunctionObjects.so");
    objects
    (
        alpha.particles1
        alpha.particles2
        alpha.air        
    );

    writeControl    adjustableRunTime;
    writeInterval   0.05;
}

// ************************************************************************* //
